Circuit: * C:\Users\User\course\csu0008\11-17\example\Draft_dogDoor.asc

WARNING: Node N003 is floating.
WARNING: Node N005 is floating.
WARNING: Node N008 is floating.
WARNING: Node N009 is floating.
WARNING: Node N011 is floating.

WARNING: Less than two connections to node N003.  This node is used by A1.
WARNING: Less than two connections to node N005.  This node is used by A4.
WARNING: Less than two connections to node N008.  This node is used by A4.
WARNING: Less than two connections to node N009.  This node is used by A5.
WARNING: Less than two connections to node N011.  This node is used by A5.
Direct Newton iteration for .op point succeeded.

Date: Mon Nov 16 20:45:52 2020
Total elapsed time: 0.110 seconds.

tnom = 27
temp = 27
method = modified trap
totiter = 3233
traniter = 3230
tranpoints = 1616
accept = 1532
rejected = 84
matrix size = 12
fillins = 0
solver = Normal
Matrix Compiler1: off  [0.0]/0.0/0.0
Matrix Compiler2: off  [0.0]/0.0/0.0

